Circuit: * Z:\Users\stoffer\Desktop\voltage doubler.asc

.OP point found by inspection.

Date: Thu Jul 03 04:37:50 2014
Total elapsed time: 0.118 seconds.

tnom = 27
temp = 27
method = modified trap
totiter = 26515
traniter = 26515
tranpoints = 7173
accept = 4889
rejected = 2284
matrix size = 11
fillins = 6
solver = Normal
Matrix Compiler1: 886 bytes object code size  0.4/0.2/[0.2]
Matrix Compiler2: 917 bytes object code size  0.2/0.3/[0.2]


